lig_41
  -OEChem-07062315103D

 46 48  0     1  0  0  0  0  0999 V2000
  -38.2269  -44.7624   17.0644 C   0  0  0  0  0  0  0  0  0  0  0  0
  -39.5768  -44.5604   17.3339 C   0  0  0  0  0  0  0  0  0  0  0  0
  -37.9747  -45.7935   19.2369 C   0  0  0  0  0  0  0  0  0  0  0  0
  -32.7872  -44.9903   16.2699 C   0  0  0  0  0  0  0  0  0  0  0  0
  -32.3168  -46.9590   18.0273 C   0  0  0  0  0  0  0  0  0  0  0  0
  -39.3311  -45.5899   19.5373 C   0  0  0  0  0  0  0  0  0  0  0  0
  -37.4150  -45.3730   18.0184 C   0  0  0  0  0  0  0  0  0  0  0  0
  -40.1109  -44.9604   18.5558 C   0  0  0  0  0  0  0  0  0  0  0  0
  -33.8108  -45.5729   16.9887 C   0  0  0  0  0  0  0  0  0  0  0  0
  -31.2907  -46.3793   17.3147 C   0  0  0  0  0  0  0  0  0  0  0  0
  -40.0510  -44.5866   21.6645 C   0  0  0  0  0  0  0  0  0  0  0  0
  -39.1501  -44.1974   22.5768 C   0  0  0  0  0  0  0  0  0  0  0  0
  -38.1360  -46.3214   22.6404 C   0  0  0  0  0  0  0  0  0  0  0  0
  -35.2167  -45.1406   16.8330 C   0  0  0  0  0  0  0  0  0  0  0  0
  -39.8976  -45.8944   20.9271 C   0  0  1  0  0  0  0  0  0  0  0  0
  -41.2115  -46.6866   20.8698 C   0  0  0  0  0  0  0  0  0  0  0  0
  -28.9955  -46.2409   16.8105 C   0  0  0  0  0  0  0  0  0  0  0  0
  -39.0969  -42.8186   23.1387 C   0  0  0  0  0  0  0  0  0  0  0  0
  -33.5914  -46.5646   17.8782 N   0  0  0  0  0  0  0  0  0  0  0  0
  -31.5065  -45.3848   16.4240 N   0  0  0  0  0  0  0  0  0  0  0  0
  -38.9577  -46.7625   21.6877 N   0  3  0  0  0  0  0  0  0  0  0  0
  -37.2805  -47.1014   23.2819 N   0  0  0  0  0  0  0  0  0  0  0  0
  -36.0320  -45.5918   17.8569 N   0  0  0  0  0  0  0  0  0  0  0  0
  -35.5234  -44.4383   15.8785 O   0  0  0  0  0  0  0  0  0  0  0  0
  -38.1330  -45.0306   22.9992 O   0  0  0  0  0  0  0  0  0  0  0  0
  -30.0246  -46.8714   17.5613 O   0  0  0  0  0  0  0  0  0  0  0  0
  -41.4001  -44.6793   18.7929 F   0  0  0  0  0  0  0  0  0  0  0  0
  -37.8080  -42.4628   23.4036 F   0  0  0  0  0  0  0  0  0  0  0  0
  -37.8496  -44.4315   16.1044 H   0  0  0  0  0  0  0  0  0  0  0  0
  -40.2096  -44.0702   16.6005 H   0  0  0  0  0  0  0  0  0  0  0  0
  -37.3159  -46.2480   19.9740 H   0  0  0  0  0  0  0  0  0  0  0  0
  -32.9477  -44.1873   15.5603 H   0  0  0  0  0  0  0  0  0  0  0  0
  -32.1509  -47.7573   18.7400 H   0  0  0  0  0  0  0  0  0  0  0  0
  -40.8464  -43.9105   21.3610 H   0  0  0  0  0  0  0  0  0  0  0  0
  -41.5254  -47.0029   21.8713 H   0  0  0  0  0  0  0  0  0  0  0  0
  -41.0879  -47.5958   20.2679 H   0  0  0  0  0  0  0  0  0  0  0  0
  -42.0376  -46.1147   20.4371 H   0  0  0  0  0  0  0  0  0  0  0  0
  -28.0512  -46.7143   17.0942 H   0  0  0  0  0  0  0  0  0  0  0  0
  -28.9272  -45.1748   17.0516 H   0  0  0  0  0  0  0  0  0  0  0  0
  -29.1419  -46.3914   15.7358 H   0  0  0  0  0  0  0  0  0  0  0  0
  -39.6583  -42.7566   24.0732 H   0  0  0  0  0  0  0  0  0  0  0  0
  -39.4899  -42.0818   22.4310 H   0  0  0  0  0  0  0  0  0  0  0  0
  -38.9129  -47.7558   21.4763 H   0  0  0  0  0  0  0  0  0  0  0  0
  -37.2235  -48.0917   23.0753 H   0  0  0  0  0  0  0  0  0  0  0  0
  -36.6741  -46.7092   23.9930 H   0  0  0  0  0  0  0  0  0  0  0  0
  -35.5838  -46.1108   18.6096 H   0  0  0  0  0  0  0  0  0  0  0  0
  1  2  2  0  0  0  0
  1  7  1  0  0  0  0
  2  8  1  0  0  0  0
  3  6  1  0  0  0  0
  3  7  2  0  0  0  0
  4  9  2  0  0  0  0
  4 20  1  0  0  0  0
  5 10  1  0  0  0  0
  5 19  2  0  0  0  0
  6  8  2  0  0  0  0
  6 15  1  0  0  0  0
  7 23  1  0  0  0  0
  8 27  1  0  0  0  0
  9 14  1  0  0  0  0
  9 19  1  0  0  0  0
 10 20  2  0  0  0  0
 10 26  1  0  0  0  0
 11 12  2  0  0  0  0
 11 15  1  0  0  0  0
 12 18  1  0  0  0  0
 12 25  1  0  0  0  0
 13 21  2  0  0  0  0
 13 22  1  0  0  0  0
 13 25  1  0  0  0  0
 14 23  1  0  0  0  0
 14 24  2  0  0  0  0
 15 16  1  0  0  0  0
 15 21  1  0  0  0  0
 17 26  1  0  0  0  0
 18 28  1  0  0  0  0
  1 29  1  0  0  0  0
  2 30  1  0  0  0  0
  3 31  1  0  0  0  0
  4 32  1  0  0  0  0
  5 33  1  0  0  0  0
 11 34  1  0  0  0  0
 16 35  1  0  0  0  0
 16 36  1  0  0  0  0
 16 37  1  0  0  0  0
 17 38  1  0  0  0  0
 17 39  1  0  0  0  0
 17 40  1  0  0  0  0
 18 41  1  0  0  0  0
 18 42  1  0  0  0  0
 21 43  1  0  0  0  0
 22 44  1  0  0  0  0
 22 45  1  0  0  0  0
 23 46  1  0  0  0  0
M  CHG  1  21   1
M  END
$$$$
