lig_74
  -OEChem-07062315113D

 45 48  0     1  0  0  0  0  0999 V2000
  -29.8986  -46.6441   17.3497 C   0  0  0  0  0  0  0  0  0  0  0  0
  -31.5877  -45.2101   16.2984 C   0  0  0  0  0  0  0  0  0  0  0  0
  -38.2805  -44.7195   17.1426 C   0  0  0  0  0  0  0  0  0  0  0  0
  -39.6232  -44.5082   17.4349 C   0  0  0  0  0  0  0  0  0  0  0  0
  -32.9166  -44.8258   16.1613 C   0  0  0  0  0  0  0  0  0  0  0  0
  -37.9997  -45.7627   19.3052 C   0  0  0  0  0  0  0  0  0  0  0  0
  -32.2706  -46.8151   17.9247 C   0  0  0  0  0  0  0  0  0  0  0  0
  -37.3803  -43.9268   23.4564 C   0  0  0  0  0  0  0  0  0  0  0  0
  -31.2524  -46.2242   17.1916 C   0  0  0  0  0  0  0  0  0  0  0  0
  -39.3509  -45.5492   19.6316 C   0  0  0  0  0  0  0  0  0  0  0  0
  -37.4535  -45.3375   18.0800 C   0  0  0  0  0  0  0  0  0  0  0  0
  -40.1397  -44.9086   18.6638 C   0  0  0  0  0  0  0  0  0  0  0  0
  -38.1905  -44.8571   22.8522 C   0  0  0  0  0  0  0  0  0  0  0  0
  -33.8633  -45.4777   16.9414 C   0  0  0  0  0  0  0  0  0  0  0  0
  -38.1441  -46.2798   22.6333 C   0  0  0  0  0  0  0  0  0  0  0  0
  -35.2927  -45.1037   16.8335 C   0  0  0  0  0  0  0  0  0  0  0  0
  -40.3902  -44.7179   21.8007 C   0  0  0  0  0  0  0  0  0  0  0  0
  -39.9335  -45.9673   20.9954 C   0  0  1  0  0  0  0  0  0  0  0  0
  -41.1570  -46.8828   20.7721 C   0  0  0  0  0  0  0  0  0  0  0  0
  -28.7980  -46.9875   17.4797 N   0  0  0  0  0  0  0  0  0  0  0  0
  -33.5705  -46.4623   17.8230 N   0  0  0  0  0  0  0  0  0  0  0  0
  -37.9661  -42.6859   23.3732 N   0  0  0  0  0  0  0  0  0  0  0  0
  -39.1313  -42.8186   22.7429 N   0  0  0  0  0  0  0  0  0  0  0  0
  -38.9895  -46.8083   21.7942 N   0  3  0  0  0  0  0  0  0  0  0  0
  -39.2452  -44.1120   22.4346 N   0  0  0  0  0  0  0  0  0  0  0  0
  -37.2378  -47.0744   23.2955 N   0  0  0  0  0  0  0  0  0  0  0  0
  -36.0706  -45.5588   17.8863 N   0  0  0  0  0  0  0  0  0  0  0  0
  -35.6499  -44.4284   15.8757 O   0  0  0  0  0  0  0  0  0  0  0  0
  -41.4333  -44.6519   18.9038 F   0  0  0  0  0  0  0  0  0  0  0  0
  -30.8193  -44.7246   15.7151 H   0  0  0  0  0  0  0  0  0  0  0  0
  -37.8785  -44.4054   16.1907 H   0  0  0  0  0  0  0  0  0  0  0  0
  -40.2656  -44.0332   16.7082 H   0  0  0  0  0  0  0  0  0  0  0  0
  -33.2035  -44.0462   15.4711 H   0  0  0  0  0  0  0  0  0  0  0  0
  -37.3624  -46.2679   20.0159 H   0  0  0  0  0  0  0  0  0  0  0  0
  -32.0093  -47.6023   18.6164 H   0  0  0  0  0  0  0  0  0  0  0  0
  -36.4301  -44.1376   23.9244 H   0  0  0  0  0  0  0  0  0  0  0  0
  -40.8587  -43.9929   21.1189 H   0  0  0  0  0  0  0  0  0  0  0  0
  -41.1169  -45.0217   22.5686 H   0  0  0  0  0  0  0  0  0  0  0  0
  -41.5740  -47.1821   21.7450 H   0  0  0  0  0  0  0  0  0  0  0  0
  -41.9213  -46.3394   20.1972 H   0  0  0  0  0  0  0  0  0  0  0  0
  -40.8473  -47.7791   20.2147 H   0  0  0  0  0  0  0  0  0  0  0  0
  -37.2261  -48.0612   23.1338 H   0  0  0  0  0  0  0  0  0  0  0  0
  -36.5905  -46.6654   23.9387 H   0  0  0  0  0  0  0  0  0  0  0  0
  -35.6036  -46.1021   18.5839 H   0  0  0  0  0  0  0  0  0  0  0  0
  -39.0075  -47.8018   21.6815 H   0  0  0  0  0  0  0  0  0  0  0  0
  1  9  1  0  0  0  0
  1 20  3  0  0  0  0
  2  5  2  0  0  0  0
  2  9  1  0  0  0  0
  3  4  2  0  0  0  0
  3 11  1  0  0  0  0
  4 12  1  0  0  0  0
  5 14  1  0  0  0  0
  6 10  1  0  0  0  0
  6 11  2  0  0  0  0
  7  9  2  0  0  0  0
  7 21  1  0  0  0  0
  8 13  2  0  0  0  0
  8 22  1  0  0  0  0
 10 12  2  0  0  0  0
 10 18  1  0  0  0  0
 11 27  1  0  0  0  0
 12 29  1  0  0  0  0
 13 15  1  0  0  0  0
 13 25  1  0  0  0  0
 14 16  1  0  0  0  0
 14 21  2  0  0  0  0
 15 24  2  0  0  0  0
 15 26  1  0  0  0  0
 16 27  1  0  0  0  0
 16 28  2  0  0  0  0
 17 18  1  0  0  0  0
 17 25  1  0  0  0  0
 18 19  1  0  0  0  0
 18 24  1  0  0  0  0
 22 23  2  0  0  0  0
 23 25  1  0  0  0  0
  2 30  1  0  0  0  0
  3 31  1  0  0  0  0
  4 32  1  0  0  0  0
  5 33  1  0  0  0  0
  6 34  1  0  0  0  0
  7 35  1  0  0  0  0
  8 36  1  0  0  0  0
 17 37  1  0  0  0  0
 17 38  1  0  0  0  0
 19 39  1  0  0  0  0
 19 40  1  0  0  0  0
 19 41  1  0  0  0  0
 26 42  1  0  0  0  0
 26 43  1  0  0  0  0
 27 44  1  0  0  0  0
 24 45  1  0  0  0  0
M  CHG  1  24   1
M  END
$$$$
